b'<?xml version="1.0" encoding="utf-8"?>\n<!DOCTYPE html PUBLIC "-//W3C//DTD XHTML 1.0 Transitional//EN" "http://www.w3.org/TR/xhtml1/DTD/xhtml1-transitional.dtd">\n<html xmlns="http://www.w3.org/1999/xhtml" xml:lang="en" lang="en">\n    \n    <head><meta http-equiv="Content-Type" content="text/html; charset=utf-8" />\n        <!-- AppResources meta begin -->\n        <script type="text/javascript">var ncbi_startTime = new Date();</script>\n        <!-- AppResources meta end -->\n        \n        <!-- TemplateResources meta begin -->\n        <meta name="paf_template" content="" />\n\n        <!-- TemplateResources meta end -->\n        \n        <!-- Logger begin -->\n        <meta name="ncbi_db" content="pmc" /><meta name="ncbi_pdid" content="article" /><meta name="ncbi_acc" content="" /><meta name="ncbi_domain" content="phenaturepg" /><meta name="ncbi_report" content="record" /><meta name="ncbi_type" content="fulltext" /><meta name="ncbi_objectid" content="" /><meta name="ncbi_pcid" content="/articles/PMC2831817/" /><meta name="ncbi_app" content="pmc" />\n        <!-- Logger end -->\n        \n        <title>High-level expression and purification of soluble recombinant FGF21 protein by SUMO fusion in Escherichia coli</title>\n        \n        <!-- AppResources external_resources begin -->\n        <link rel="stylesheet" href="/core/jig/1.14.8/css/jig.min.css" /><script type="text/javascript" src="/core/jig/1.14.8/js/jig.min.js"></script>\n\n        <!-- AppResources external_resources end -->\n        \n        <!-- Page meta begin -->\n        <meta name="robots" content="INDEX,NOFOLLOW,NOARCHIVE" /><link rel="canonical" href="https://www.ncbi.nlm.nih.gov/pmc/articles/PMC2831817/" /><link rel="schema.DC" href="http://purl.org/DC/elements/1.0/" /><meta name="citation_journal_title" content="BMC Biotechnology" /><meta name="citation_title" content="High-level expression and purification of soluble recombinant FGF21 protein by SUMO fusion in Escherichia coli" /><meta name="citation_authors" content="Huiyan Wang, Yechen Xiao, Lianjun Fu, Hongxin Zhao, Yaofang Zhang, Xiaoshan Wan, Yuxia Qin, Yadong Huang, Hongchang Gao, Xiaokun Li" /><meta name="citation_date" content="2010" /><meta name="citation_volume" content="10" /><meta name="citation_doi" content="10.1186/1472-6750-10-14" /><meta name="citation_abstract_html_url" content="/pmc/articles/PMC2831817/?report=abstract" /><meta name="citation_pmid" content="20163718" /><meta name="DC.Title" content="High-level expression and purification of soluble recombinant FGF21 protein by SUMO fusion in Escherichia coli" /><meta name="DC.Type" content="Text" /><meta name="DC.Publisher" content="Nature Publishing Group" /><meta name="DC.Contributor" content="Huiyan Wang" /><meta name="DC.Contributor" content="Yechen Xiao" /><meta name="DC.Contributor" content="Lianjun Fu" /><meta name="DC.Contributor" content="Hongxin Zhao" /><meta name="DC.Contributor" content="Yaofang Zhang" /><meta name="DC.Contributor" content="Xiaoshan Wan" /><meta name="DC.Contributor" content="Yuxia Qin" /><meta name="DC.Contributor" content="Yadong Huang" /><meta name="DC.Contributor" content="Hongchang Gao" /><meta name="DC.Contributor" content="Xiaokun Li" /><meta name="DC.Date" content="2010" /><meta name="DC.Identifier" content="10.1186/1472-6750-10-14" /><meta name="DC.Language" content="en" /><meta property="og:title" content="High-level expression and purification of soluble recombinant FGF21 protein by SUMO fusion in Escherichia coli" /><meta property="og:type" content="article" /><meta property="og:description" content="Fibroblast growth factor 21 (FGF21) is a promising drug candidate to combat metabolic diseases. However, high-level expression and purification of recombinant FGF21 (rFGF21) in Escherichia coli (E. coli) is difficult because rFGF21 forms inclusion bodies ..." /><meta property="og:url" content="https://www.ncbi.nlm.nih.gov/pmc/articles/PMC2831817/" /><meta property="og:site_name" content="PubMed Central (PMC)" /><meta property="og:image" content="https://www.ncbi.nlm.nih.gov/corehtml/pmc/pmcgifs/pmc-logo-share.png" /><meta name="twitter:card" content="summary" /><meta name="twitter:site" content="@ncbi" /><link rel="stylesheet" href="/corehtml/pmc/css/3.14.1/pmc.min.css" type="text/css" /><link rel="stylesheet" href="/corehtml/pmc/css/3.14.1/pmc_extras_prnt.min.css" type="text/css" media="print" /><script type="text/javascript" src="/corehtml/pmc/js/common.min.js">//</script><script type="text/javascript" src="/corehtml/pmc/js/NcbiTagServer.min.js">//</script><meta name="citationexporter" content="backend:\'https://api.ncbi.nlm.nih.gov/lit/ctxp/v1/pmc/\'" /><script type="text/javascript" src="https://www.ncbi.nlm.nih.gov/corehtml/pmc/ctxp/jquery.citationexporter.min.js">//</script><link rel="stylesheet" href="https://www.ncbi.nlm.nih.gov/corehtml/pmc/ctxp/citationexporter.css" type="text/css" /><script type="text/javascript">window.name="mainwindow";</script><style type="text/css">.pmc-wm {background:transparent repeat-y top left;background-image:url(/corehtml/pmc/pmcgifs/wm-phenaturepg.gif);background-size: auto, contain}</style><style type="text/css">.print-view{display:block}</style><style type="text/css">\n        div.pmc_para_cit li.highlight,\n        div.pmc_para_cit li.highlight .one_line_source\n        { background: #E0E0E0; }\n        a.bibr.highlight { background: #E0E0E0; } \n      </style><meta name="cited_in_systematic_reviews" content="" /><link rel="alternate" type="application/epub+zip" href="/pmc/articles/PMC2831817/epub/" /><link rel="alternate" type="application/pdf" href="/pmc/articles/PMC2831817/pdf/12896_2009_Article_482.pdf" />\n\n        <!-- Page meta end -->\n    <link rel="shortcut icon" href="//www.ncbi.nlm.nih.gov/favicon.ico" /><meta name="ncbi_phid" content="8A1B943DE9A435B100000000037B037B.m_8" />\n<meta name=\'referrer\' content=\'origin-when-cross-origin\'/><link type="text/css" rel="stylesheet" href="//static.pubmed.gov/portal/portal3rc.fcgi/4160049/css/3852956/3985586/3808861/4121862/3974050/3917732/251717/4048120/3846471/14534/45193/4113719/3849091/3984811/3751656/4033350/3840896/3577051/3852958/3881636/3579733/4062871/12930/3964959/3855473/4047625/3854974/3854955/4076335/4128070/9685/3549676/3609192/3609193/3609213/3395586/4143404.css" /><link type="text/css" rel="stylesheet" href="//static.pubmed.gov/portal/portal3rc.fcgi/4160049/css/3411343/3882866/4157116.css" media="print" /></head>\n    <body class="article">\n        <div class="grid">\n            <div class="col twelve_col nomargin shadow">\n                <!-- System messages like service outage or JS required; this is handled by the TemplateResources portlet -->\n                <div class="sysmessages">\n                    <noscript>\n\t<p class="nojs">\n\t<strong>Warning:</strong>\n\tThe NCBI web site requires JavaScript to function. \n\t<a href="/guide/browsers/#enablejs" title="Learn how to enable JavaScript" target="_blank">more...</a>\n\t</p>\n\t</noscript>\n                </div>\n                <!--/.sysmessage-->\n                <div class="wrap">\n                    <div class="page">\n                        <div class="top">\n                            <div class="universal_header" id="universal_header"><ul class="inline_list jig-ncbimenu ui-ncbimenu resources_list" id="navcontent"><li class="ui-ncbimenu-item-leaf ui-ncbimenu-item-first ui-helper-reset ui-ncbimenu-item-no-hlt"><a class="ui-ncbimenu-link-first" href="/" role="banner" title="NCBI Home" id="ncbihome" accesskey="1"><span class="offscreen_noflow">NCBI</span><img src="//static.pubmed.gov/portal/portal3rc.fcgi/4160049/img/28977" class="ncbi_logo" title="NCBI" alt="NCBI Logo" /></a></li><li class="offscreen_noflow ui-ncbimenu-item-skip access"><a href="#maincontent" title="Skip to the content" tabindex="0" accesskey="3">Skip to main\n                        content</a></li><li class="offscreen_noflow ui-ncbimenu-item-skip access"><a href="#navcontent" title="Skip to the navigation" tabindex="0" accesskey="4">Skip to\n                        navigation</a></li><li id="resource-menu" class="topmenu ui-helper-reset ui-ncbimenu-item-first ui-helper-reset"><a class="ui-ncbimenu-first-link-has-submenu ui-ncbimenu-link-first topanchor expandDown" href="/static/header_footer_ajax/submenu/#resources">Resources</a></li><li id="all-howtos-menu" class="topmenu ui-helper-reset ui-ncbimenu-item-first"><a class="ui-ncbimenu-first-link-has-submenu ui-ncbimenu-link-first topanchor expandDown" href="/static/header_footer_ajax/submenu/#howto">How To</a></li><li class="offscreen_noflow ui-ncbimenu-item-skip access"><a href="/guide/browsers/#accesskeys" title="About My NCBI Accesskeys" tabindex="0" accesskey="0">About NCBI Accesskeys</a></li></ul><div class="myncbi"><span id="myncbiusername" style="display:none"><a href="/account/settings/" id="mnu" title="Edit account settings"></a></span><a accesskey="2" href="/myncbi/" id="myncbi" style="display:none">My NCBI</a><a href="/account/" id="sign_in">Sign in to NCBI</a><a href="/account/signout/" id="sign_out" style="display:none">Sign Out</a></div></div>\n                            <div class="header">\n    <div class="res_logo">\n  <h1 class="img_logo"><a href="/pmc/" class="pmc_logo offscreen">PMC</a></h1>\n  <div class="NLMLogo">\n    <a href="https://www.nlm.nih.gov/" title="US National Library of Medicine">US National Library of Medicine</a>\n    <br />\n    <a href="https://www.nih.gov/" title="National Institutes of Health">National Institutes of Health</a>\n  </div>\n</div>\n    <div class="search"><form method="get" action="/pmc/"><div class="search_form"><label for="database" class="offscreen_noflow">Search database</label><select id="database"><optgroup label="Recent"><option value="pmc" selected="selected" class="last" data-ac_dict="pmc-search-autocomplete">PMC</option></optgroup><optgroup label="All"><option value="gquery">All Databases</option><option value="assembly">Assembly</option><option value="biocollections">Biocollections</option><option value="bioproject">BioProject</option><option value="biosample">BioSample</option><option value="biosystems">BioSystems</option><option value="books">Books</option><option value="clinvar">ClinVar</option><option value="cdd">Conserved Domains</option><option value="gap">dbGaP</option><option value="dbvar">dbVar</option><option value="gene">Gene</option><option value="genome">Genome</option><option value="gds">GEO DataSets</option><option value="geoprofiles">GEO Profiles</option><option value="gtr">GTR</option><option value="homologene">HomoloGene</option><option value="ipg">Identical Protein Groups</option><option value="medgen">MedGen</option><option value="mesh">MeSH</option><option value="ncbisearch">NCBI Web Site</option><option value="nlmcatalog">NLM Catalog</option><option value="nuccore">Nucleotide</option><option value="omim">OMIM</option><option value="pmc" data-ac_dict="pmc-search-autocomplete">PMC</option><option value="popset">PopSet</option><option value="probe">Probe</option><option value="protein">Protein</option><option value="proteinclusters">Protein Clusters</option><option value="pcassay">PubChem BioAssay</option><option value="pccompound">PubChem Compound</option><option value="pcsubstance">PubChem Substance</option><option value="pubmed">PubMed</option><option value="snp">SNP</option><option value="sparcle">Sparcle</option><option value="sra">SRA</option><option value="structure">Structure</option><option value="taxonomy">Taxonomy</option><option value="toolkit">ToolKit</option><option value="toolkitall">ToolKitAll</option><option value="toolkitbookgh">ToolKitBookgh</option></optgroup></select><div class="nowrap"><label for="term" class="offscreen_noflow" accesskey="/">Search term</label><div class="nowrap"><input type="text" name="term" id="term" title="Search PMC. Use up and down arrows to choose an item from the autocomplete." value="" class="jig-ncbiclearbutton jig-ncbiautocomplete" data-jigconfig="dictionary:\'pmc-search-autocomplete\',disableUrl:\'NcbiSearchBarAutoComplCtrl\'" autocomplete="off" data-sbconfig="ds:\'no\',pjs:\'no\',afs:\'yes\'" /></div><button id="search" type="submit" class="button_search nowrap" cmd="go">Search</button></div></div></form><ul class="searchlinks inline_list"><li>\n                        <a href="/pmc/advanced/">Advanced</a>\n                    </li><li>\n                        <a href="/pmc/journals/">Journal list</a>\n                    </li><li class="help">\n                        <a target="_blank" href="/books/NBK3825/">Help</a>\n                    </li></ul></div>\n</div>\n\n                            \n                            \n                        <!--<component id="Page" label="headcontent"/>-->\n                            \n                        </div>\n                        <div class="content">\n                            <!-- site messages -->\n                            <div class="container">\n    <div id="maincontent" class="content eight_col col">\n        <div class="navlink-box">\n            <ul class="page-breadcrumbs inline_list small"><li class="journal-list"><a href="/pmc/journals/" class="navlink">Journal List</a></li><li class="article-entrez-filter"><a href="/pmc/?term=Nature%20Public%20Health%20Emergency%20Collection[filter]" class="navlink">Nature Public Health Emergency Collection</a></li><li class="accid">PMC2831817</li></ul>\n        </div>\n\n        <!-- Journal banner -->\n        <div class="pmc-page-banner whole_rhythm"><div class="banner-generic-logo-background inline_block"><div class="banner-journal-publisher-over-image"><div class="banner-journal-name bl-jtitle-phenaturepg">BMC Biotechnology</div><div class="banner-publisher-name">Nature Publishing Group</div></div></div></div>\n        \n        <!--component id=\'MainPortlet\' label=\'search-reference\'/-->\n        \n        <!-- Book content -->\n        <div class="">\n            \n        \n            \n            <div class="hide-overflow article lit-style content pmc-wm slang-all page-box"><!--main-content--><div class="jig-ncbiinpagenav" data-jigconfig="smoothScroll: false, allHeadingLevels: [\'h2\'], headingExclude: \':hidden\'"><div class="fm-sec half_rhythm no_top_margin"><div class="fm-citation half_rhythm no_top_margin clearfix"><div class="inline_block eight_col va_top"><div><div><span class="cit"><span id="pmcmata">BMC Biotechnol</span>. 2010; 10: 14. </span></div><div><span class="fm-vol-iss-date">Published online 2010 Feb 17. </span>  <span class="doi">doi:\xc2\xa0<a href="//dx.doi.org/10.1186%2F1472-6750-10-14" target="pmc_ext" ref="reftype=other&amp;article-id=2831817&amp;issue-id=354737&amp;journal-id=3814&amp;FROM=Article%7CFront%20Matter&amp;TO=Content%20Provider%7CCrosslink%7CDOI">10.1186/1472-6750-10-14</a></span></div></div></div><div class="inline_block four_col va_top show-overflow align_right"><div class="fm-citation-ids"><div class="fm-citation-pmcid"><span class="fm-citation-ids-label">PMCID: </span><span>PMC2831817</span></div><div class="fm-citation-pmid">PMID: <a href="/pubmed/20163718">20163718</a></div></div></div></div><h1 class="content-title">High-level expression and purification of soluble recombinant FGF21 protein by SUMO fusion in <em>Escherichia coli</em></h1><div class="half_rhythm"><div class="contrib-group fm-author"><a href="/pubmed/?term=Wang%20H%5BAuthor%5D&amp;cauthor=true&amp;cauthor_uid=20163718" class="affpopup" co-rid="_co_idm139727982722368" co-class="co-affbox">Huiyan Wang</a>,<sup>1,</sup><sup>2</sup> <a href="/pubmed/?term=Xiao%20Y%5BAuthor%5D&amp;cauthor=true&amp;cauthor_uid=20163718" class="affpopup" co-rid="_co_idm139727984830976" co-class="co-affbox">Yechen Xiao</a>,<sup><img src="/corehtml/pmc/pmcgifs/corrauth.gif" alt="corresponding author" /></sup><sup>#</sup><sup>1</sup> <a href="/pubmed/?term=Fu%20L%5BAuthor%5D&amp;cauthor=true&amp;cauthor_uid=20163718" class="affpopup" co-rid="_co_idm139727984828800" co-class="co-affbox">Lianjun Fu</a>,<sup>3</sup> <a href="/pubmed/?term=Zhao%20H%5BAuthor%5D&amp;cauthor=true&amp;cauthor_uid=20163718" class="affpopup" co-rid="_co_idm139727983048352" co-class="co-affbox">Hongxin Zhao</a>,<sup>1</sup> <a href="/pubmed/?term=Zhang%20Y%5BAuthor%5D&amp;cauthor=true&amp;cauthor_uid=20163718" class="affpopup" co-rid="_co_idm139727983046432" co-class="co-affbox">Yaofang Zhang</a>,<sup>1</sup> <a href="/pubmed/?term=Wan%20X%5BAuthor%5D&amp;cauthor=true&amp;cauthor_uid=20163718" class="affpopup" co-rid="_co_idm139727983044064" co-class="co-affbox">Xiaoshan Wan</a>,<sup>1</sup> <a href="/pubmed/?term=Qin%20Y%5BAuthor%5D&amp;cauthor=true&amp;cauthor_uid=20163718" class="affpopup" co-rid="_co_idm139727983041696" co-class="co-affbox">Yuxia Qin</a>,<sup>1</sup> <a href="/pubmed/?term=Huang%20Y%5BAuthor%5D&amp;cauthor=true&amp;cauthor_uid=20163718" class="affpopup" co-rid="_co_idm139727983039328" co-class="co-affbox">Yadong Huang</a>,<sup>4</sup> <a href="/pubmed/?term=Gao%20H%5BAuthor%5D&amp;cauthor=true&amp;cauthor_uid=20163718" class="affpopup" co-rid="_co_idm139727983036960" co-class="co-affbox">Hongchang Gao</a>,<sup>2</sup> and  <a href="/pubmed/?term=Li%20X%5BAuthor%5D&amp;cauthor=true&amp;cauthor_uid=20163718" class="affpopup" co-rid="_co_idm139727983034592" co-class="co-affbox">Xiaokun Li</a><sup><img src="/corehtml/pmc/pmcgifs/corrauth.gif" alt="corresponding author" /></sup><sup>1</sup></div><div style="display:none" class="contrib-group aff-tip"><div id="_co_idm139727982722368"><h3 class="no_margin">Huiyan Wang</h3><p><sup>1</sup>Engineering Research Center of Bioreactor and Pharmaceutical Development, Ministry of Education, Jilin Agricultural University, 130118 China </p><p><sup>2</sup>School of Pharmacy, Wenzhou Medical College, Wenzhou, Zhejiang 325000 China </p><div>Find articles by <a href="/pubmed/?term=Wang%20H%5BAuthor%5D&amp;cauthor=true&amp;cauthor_uid=20163718">Huiyan Wang</a></div></div><div id="_co_idm139727984830976"><h3 class="no_margin">Yechen Xiao</h3><p><sup>1</sup>Engineering Research Center of Bioreactor and Pharmaceutical Development, Ministry of Education, Jilin Agricultural University, 130118 China </p><div>Find articles by <a href="/pubmed/?term=Xiao%20Y%5BAuthor%5D&amp;cauthor=true&amp;cauthor_uid=20163718">Yechen Xiao</a></div></div><div id="_co_idm139727984828800"><h3 class="no_margin">Lianjun Fu</h3><p><sup>3</sup>Jilin Agricultural Science and Technology College, 132101 China </p><div>Find articles by <a href="/pubmed/?term=Fu%20L%5BAuthor%5D&amp;cauthor=true&amp;cauthor_uid=20163718">Lianjun Fu</a></div></div><div id="_co_idm139727983048352"><h3 class="no_margin">Hongxin Zhao</h3><p><sup>1</sup>Engineering Research Center of Bioreactor and Pharmaceutical Development, Ministry of Education, Jilin Agricultural University, 130118 China </p><div>Find articles by <a href="/pubmed/?term=Zhao%20H%5BAuthor%5D&amp;cauthor=true&amp;cauthor_uid=20163718">Hongxin Zhao</a></div></div><div id="_co_idm139727983046432"><h3 class="no_margin">Yaofang Zhang</h3><p><sup>1</sup>Engineering Research Center of Bioreactor and Pharmaceutical Development, Ministry of Education, Jilin Agricultural University, 130118 China </p><div>Find articles by <a href="/pubmed/?term=Zhang%20Y%5BAuthor%5D&amp;cauthor=true&amp;cauthor_uid=20163718">Yaofang Zhang</a></div></div><div id="_co_idm139727983044064"><h3 class="no_margin">Xiaoshan Wan</h3><p><sup>1</sup>Engineering Research Center of Bioreactor and Pharmaceutical Development, Ministry of Education, Jilin Agricultural University, 130118 China </p><div>Find articles by <a href="/pubmed/?term=Wan%20X%5BAuthor%5D&amp;cauthor=true&amp;cauthor_uid=20163718">Xiaoshan Wan</a></div></div><div id="_co_idm139727983041696"><h3 class="no_margin">Yuxia Qin</h3><p><sup>1</sup>Engineering Research Center of Bioreactor and Pharmaceutical Development, Ministry of Education, Jilin Agricultural University, 130118 China </p><div>Find articles by <a href="/pubmed/?term=Qin%20Y%5BAuthor%5D&amp;cauthor=true&amp;cauthor_uid=20163718">Yuxia Qin</a></div></div><div id="_co_idm139727983039328"><h3 class="no_margin">Yadong Huang</h3><p><sup>4</sup>Biopharmaceutical research and Development Center, Institute of Life and Health Engineering, Jinan University, Guangzhou, 510642 China </p><div>Find articles by <a href="/pubmed/?term=Huang%20Y%5BAuthor%5D&amp;cauthor=true&amp;cauthor_uid=20163718">Yadong Huang</a></div></div><div id="_co_idm139727983036960"><h3 class="no_margin">Hongchang Gao</h3><p><sup>2</sup>School of Pharmacy, Wenzhou Medical College, Wenzhou, Zhejiang 325000 China </p><div>Find articles by <a href="/pubmed/?term=Gao%20H%5BAuthor%5D&amp;cauthor=true&amp;cauthor_uid=20163718">Hongchang Gao</a></div></div><div id="_co_idm139727983034592"><h3 class="no_margin">Xiaokun Li</h3><p><sup>1</sup>Engineering Research Center of Bioreactor and Pharmaceutical Development, Ministry of Education, Jilin Agricultural University, 130118 China </p><div>Find articles by <a href="/pubmed/?term=Li%20X%5BAuthor%5D&amp;cauthor=true&amp;cauthor_uid=20163718">Xiaokun Li</a></div></div></div></div><div class="fm-panel half_rhythm"><div class="togglers"><a href="#" class="pmctoggle" rid="idm139728024756000_ai">Author information</a> <a href="#" class="pmctoggle" rid="idm139728024756000_an">Article notes</a> <a href="#" class="pmctoggle" rid="idm139728024756000_cpl">Copyright and License information</a> <a href="/pmc/about/disclaimer/">Disclaimer</a></div><div class="fm-authors-info fm-panel hide half_rhythm" id="idm139728024756000_ai" style="display:none"><div class="fm-affl" lang="en" id="Aff1"><sup>1</sup>Engineering Research Center of Bioreactor and Pharmaceutical Development, Ministry of Education, Jilin Agricultural University, 130118 China </div><div class="fm-affl" lang="en" id="Aff2"><sup>2</sup>School of Pharmacy, Wenzhou Medical College, Wenzhou, Zhejiang 325000 China </div><div class="fm-affl" lang="en" id="Aff3"><sup>3</sup>Jilin Agricultural Science and Technology College, 132101 China </div><div class="fm-affl" lang="en" id="Aff4"><sup>4</sup>Biopharmaceutical research and Development Center, Institute of Life and Health Engineering, Jinan University, Guangzhou, 510642 China </div><div><span class="fm-affl">Huiyan Wang, </span><span class="fm-affl"><span class="email-label">Email: </span><a href="mailto:dev@null" data-email="nc.moc.oohay@nayiuh_w" class="oemail">nc.moc.oohay@nayiuh_w</a></span>.</div><div><a href="#idm139728024756000aff-info">Contributor Information</a>.</div><div><sup><img src="/corehtml/pmc/pmcgifs/corrauth.gif" alt="corresponding author" /></sup>Corresponding author.</div><div><sup>#</sup>Contributed equally.</div></div><div class="fm-article-notes fm-panel hide half_rhythm" id="idm139728024756000_an" style="display:none"><div class="fm-pubdate half_rhythm">Received 2009 Aug 13; Accepted 2010 Feb 17.</div></div><div class="permissions fm-panel half_rhythm hide" id="idm139728024756000_cpl" style="display:none"><div class="fm-copyright half_rhythm"><a href="/pmc/about/copyright/">Copyright</a> &#x000a9; Wang et al; licensee BioMed Central Ltd. 2010</div><div class="license half_rhythm">This article is made available via the PMC Open Access Subset for unrestricted research re-use and secondary analysis in any form or by any means with acknowledgement of the original source. These permissions are granted for the duration of the World Health Organization (WHO) declaration of COVID-19 as a global pandemic.</div></div></div><div id="pmclinksbox" class="links-box whole_rhythm"><div class="fm-panel"><div>This article has been <a href="/pmc/articles/PMC2831817/citedby/">cited by</a> other articles in PMC.</div></div></div></div><div class="sec"></div><div id="Abs1" lang="en" class="tsec sec"><h2 class="head no_bottom_margin" id="Abs1title">Abstract</h2><!--article-meta--><div><div id="__sec1" class="sec sec-first"><h3 id="__sec1title">Background</h3><p id="__p1" class="p p-first-last">Fibroblast growth factor 21 (FGF21) is a promising drug candidate to combat metabolic diseases. However, high-level expression and purification of recombinant FGF21 (rFGF21) in <em>Escherichia coli (E. coli)</em> is difficult because rFGF21 forms inclusion bodies in the bacteria making it difficult to purify and obtain high concentrations of bioactive rFGF21. To overcome this problem, we fused the <em>FGF21</em> with <em>SUMO</em> (Small ubiquitin-related modifier) by polymerase chain reaction (PCR), and expressed the fused gene in <em>E. coli</em> BL21(DE3).</p></div><div id="__sec2" class="sec"><h3 id="__sec2title">Results</h3><p id="__p2" class="p p-first-last">By inducing with IPTG, SUMO-FGF21 was expressed at a high level. Its concentration reached 30% of total protein, and exceeded 95% of all soluble proteins. The fused protein was purified by DEAE sepharose FF and Ni-NTA affinity chromatography. Once cleaved by the SUMO protease, the purity of rFGF21 by high performance liquid chromatography (HPLC) was shown to be higher than 96% with low endotoxin level (&#x0003c;1.0 EU/ml). The results of <em>in vivo</em> animal experiments showed that rFGF21 produced by using this method, could decrease the concentration of plasma glucose in diabetic rats by streptozotocin (STZ) injection.</p></div><div id="__sec3" class="sec"><h3 id="__sec3title">Conclusions</h3><p id="__p3" class="p p-first-last">This study demonstrated that SUMO, when fused with FGF21, was able to promote its soluble expression of the latter in <em>E. coli</em>, making it more convenient to purify rFGF21 than previously. This may be a better method to produce rFGF21 for pharmaceutical research and development.</p></div><div id="__sec4" class="sec sec-last"><h3 id="__sec4title">Electronic supplementary material</h3><p id="__p4" class="p p-first-last">The online version of this article (doi:10.1186/1472-6750-10-14) contains supplementary material, which is available to authorized users.</p></div></div><div class="sec"><strong class="kwd-title">Keywords: </strong><span class="kwd-text">High Performance Liquid Chromatography, Soluble Expression, Form Inclusion Body, Sumo Protease, Human FGF21</span></div></div><div id="Sec1" class="tsec sec"><h2 class="head no_bottom_margin" id="Sec1title">Background</h2><p id="__p5" class="p p-first">FGF21 is a potent regulator of glucose homeostasis [<a href="#CR1" rid="CR1" class=" bibr popnode tag_hotlink tag_tooltip" id="__tag_844014409">1</a>]. It was originally identified as a hormone that stimulates glucose uptake in adipocytes [<a href="#CR2" rid="CR2" class=" bibr popnode tag_hotlink tag_tooltip" id="__tag_844014462">2</a>]. FGF21 is induced and secreted from the liver upon fasting and acts on adipose tissues to induce metabolic adaptation to fasting[<a href="#CR3" rid="CR3" class=" bibr popnode tag_hotlink tag_tooltip" id="__tag_844014413">3</a>, <a href="#CR4" rid="CR4" class=" bibr popnode tag_hotlink tag_tooltip" id="__tag_844014466">4</a>]. Specifically, FGF21 stimulates lipolysis in adipocytes, a process which releases fatty acids into the bloodstream; when they reach the liver, these fatty acids are converted to ketones[<a href="#CR3" rid="CR3" class=" bibr popnode tag_hotlink tag_tooltip" id="__tag_844014422">3</a>]. FGF21 is free of the proliferative and tumorigenic effects [<a href="#CR5" rid="CR5" class=" bibr popnode tag_hotlink tag_tooltip" id="__tag_844014432">5</a>&#x02013;<a href="#CR7" rid="CR7" class=" bibr popnode tag_hotlink tag_tooltip" id="__tag_844014423">7</a>] that are documented for other members of the FGF family [<a href="#CR3" rid="CR3" class=" bibr popnode tag_hotlink tag_tooltip" id="__tag_844014421">3</a>, <a href="#CR8" rid="CR8" class=" bibr popnode tag_hotlink tag_tooltip" id="__tag_844014450">8</a>, <a href="#CR9" rid="CR9" class=" bibr popnode tag_hotlink tag_tooltip" id="__tag_844014439">9</a>]. Systemic administration of FGF21 reduced plasma glucose, fructosamine, triglycerides, insulin, and glucagon in diabetic rhesus monkeys[<a href="#CR10" rid="CR10" class=" bibr popnode tag_hotlink tag_tooltip" id="__tag_844014424">10</a>]. FGF21 administration led to significant improvements in lipoprotein profiles, by lowering low-density cholesterol and by raising high-density cholesterol, as well as causing weight loss in the animals [<a href="#CR10" rid="CR10" class=" bibr popnode tag_hotlink tag_tooltip" id="__tag_844014407">10</a>].</p><p id="__p6">In recent years, FGF21 has been described as potential new drug candidate to combat metabolic diseases [<a href="#CR5" rid="CR5" class=" bibr popnode tag_hotlink tag_tooltip" id="__tag_844014434">5</a>, <a href="#CR6" rid="CR6" class=" bibr popnode tag_hotlink tag_tooltip" id="__tag_844014449">6</a>]. However, producing FGF21 by traditional techniques, such as plasmid recombination in <em>E. coli</em>, yields disappointing results. Kharitonenkov\'s experiment has shown that recombinant FGF21 (rFGF21) accumulated and formed inclusion bodies in transformed <em>E. coli</em> [<a href="#CR5" rid="CR5" class=" bibr popnode tag_hotlink tag_tooltip" id="__tag_844014459">5</a>]. Our previous experiments also showed that rFGF21 without fusion expression more easily formed inclusion bodies, and it was difficult to produce bioactive protein (data not shown), because the inclusion bodies need to be denatured, annealed, and purified through many chromatography columns.</p><p id="__p7">SUMO (Small ubiquitin-related modifier) proteins are covalently attached to and removed from specific protein substrates in eukaryotic cells[<a href="#CR11" rid="CR11" class=" bibr popnode tag_hotlink tag_tooltip" id="__tag_844014429">11</a>]. Sumoylation as a reversible post-translational modification process has been shown to be involved in many cellular processes including nuclear-cytosolic transport, apoptosis, protein activation, protein stability, stress response, and cell cycle progression[<